<?xml version="1.0" encoding="UTF-8"?>

<!-- generated on 2025-12-02 19:13:46 by Eclipse SUMO netconvert Version 1.12.0
<configuration xmlns:xsi="http://www.w3.org/2001/XMLSchema-instance" xsi:noNamespaceSchemaLocation="http://sumo.dlr.de/xsd/netconvertConfiguration.xsd">

    <input>
        <node-files value="sumo/training/network.nod.xml"/>
        <edge-files value="sumo/training/network.edg.xml"/>
    </input>

    <output>
        <output-file value="sumo/training/network.net.xml"/>
    </output>

    <report>
        <no-warnings value="true"/>
        <aggregate-warnings value="5"/>
    </report>

</configuration>
-->

<net version="1.9" junctionCornerDetail="5" limitTurnSpeed="5.50" xmlns:xsi="http://www.w3.org/2001/XMLSchema-instance" xsi:noNamespaceSchemaLocation="http://sumo.dlr.de/xsd/net_file.xsd">

    <location netOffset="2000.00,0.00" convBoundary="0.00,0.00,3000.00,0.00" origBoundary="-2000.00,0.00,1000.00,0.00" projParameter="!"/>

    <edge id=":crossing_0" function="internal">
        <lane id=":crossing_0_0" index="0" allow="rail" speed="50.00" length="0.10" shape="2000.00,-1.60 2000.00,-1.60"/>
    </edge>

    <edge id="crossing_to_end" from="crossing" to="track_end" priority="-1">
        <lane id="crossing_to_end_0" index="0" allow="rail" speed="50.00" length="1000.00" shape="2000.00,-1.60 3000.00,-1.60"/>
    </edge>
    <edge id="track_to_crossing" from="track_start" to="crossing" priority="-1">
        <lane id="track_to_crossing_0" index="0" allow="rail" speed="50.00" length="2000.00" shape="0.00,-1.60 2000.00,-1.60"/>
    </edge>

    <junction id="crossing" type="priority" x="2000.00" y="0.00" incLanes="track_to_crossing_0" intLanes=":crossing_0_0" shape="2000.00,0.00 2000.00,-3.20 2000.00,0.00">
        <request index="0" response="0" foes="0" cont="0"/>
    </junction>
    <junction id="track_end" type="dead_end" x="3000.00" y="0.00" incLanes="crossing_to_end_0" intLanes="" shape="3000.00,-3.20 3000.00,0.00"/>
    <junction id="track_start" type="dead_end" x="0.00" y="0.00" incLanes="" intLanes="" shape="0.00,0.00 0.00,-3.20"/>

    <connection from="track_to_crossing" to="crossing_to_end" fromLane="0" toLane="0" via=":crossing_0_0" dir="s" state="M"/>

    <connection from=":crossing_0" to="crossing_to_end" fromLane="0" toLane="0" dir="s" state="M"/>

</net>
