<?xml version="1.0" encoding="UTF-8"?>

<!-- generated on 2025-12-02 19:09:30 by Eclipse SUMO netconvert Version 1.12.0
<configuration xmlns:xsi="http://www.w3.org/2001/XMLSchema-instance" xsi:noNamespaceSchemaLocation="http://sumo.dlr.de/xsd/netconvertConfiguration.xsd">

    <input>
        <node-files value="sumo/complete/network.nod.xml"/>
        <edge-files value="sumo/complete/network.edg.xml"/>
    </input>

    <output>
        <output-file value="sumo/complete/network.net.xml"/>
    </output>

    <report>
        <no-warnings value="true"/>
        <aggregate-warnings value="5"/>
    </report>

</configuration>
-->

<net version="1.9" junctionCornerDetail="5" limitTurnSpeed="5.50" xmlns:xsi="http://www.w3.org/2001/XMLSchema-instance" xsi:noNamespaceSchemaLocation="http://sumo.dlr.de/xsd/net_file.xsd">

    <location netOffset="1500.00,100.00" convBoundary="0.00,0.00,3000.00,200.00" origBoundary="-1500.00,-100.00,1500.00,100.00" projParameter="!"/>

    <edge id=":cross_e_n_0" function="internal">
        <lane id=":cross_e_n_0_0" index="0" speed="16.67" length="14.40" shape="1707.20,204.80 1692.80,204.80"/>
        <lane id=":cross_e_n_0_1" index="1" speed="16.67" length="14.40" shape="1707.20,201.60 1692.80,201.60"/>
    </edge>
    <edge id=":cross_e_n_2" function="internal">
        <lane id=":cross_e_n_2_0" index="0" speed="8.67" length="3.71" shape="1707.20,201.60 1703.56,200.89"/>
    </edge>
    <edge id=":cross_e_n_3" function="internal">
        <lane id=":cross_e_n_3_0" index="0" speed="3.65" length="1.44" shape="1707.20,201.60 1706.00,200.80"/>
    </edge>
    <edge id=":cross_e_n_11" function="internal">
        <lane id=":cross_e_n_11_0" index="0" speed="8.67" length="13.14" shape="1703.56,200.89 1703.35,200.85 1700.60,198.60 1698.95,194.85 1698.40,189.60"/>
    </edge>
    <edge id=":cross_e_n_12" function="internal">
        <lane id=":cross_e_n_12_0" index="0" speed="3.65" length="3.23" shape="1706.00,200.80 1705.60,200.00 1706.00,199.20 1707.20,198.40"/>
    </edge>
    <edge id=":cross_e_n_4" function="internal">
        <lane id=":cross_e_n_4_0" index="0" speed="6.51" length="9.03" shape="1701.60,189.60 1701.95,192.05 1703.00,193.80 1704.75,194.85 1707.20,195.20"/>
    </edge>
    <edge id=":cross_e_n_5" function="internal">
        <lane id=":cross_e_n_5_0" index="0" speed="8.67" length="16.85" shape="1701.60,189.60 1701.05,194.85 1699.40,198.60 1696.65,200.85 1692.80,201.60"/>
    </edge>
    <edge id=":cross_e_n_6" function="internal">
        <lane id=":cross_e_n_6_0" index="0" speed="3.65" length="1.44" shape="1701.60,189.60 1700.80,190.80"/>
    </edge>
    <edge id=":cross_e_n_13" function="internal">
        <lane id=":cross_e_n_13_0" index="0" speed="3.65" length="3.23" shape="1700.80,190.80 1700.00,191.20 1699.20,190.80 1698.40,189.60"/>
    </edge>
    <edge id=":cross_e_n_7" function="internal">
        <lane id=":cross_e_n_7_0" index="0" speed="6.51" length="9.03" shape="1692.80,195.20 1695.25,194.85 1697.00,193.80 1698.05,192.05 1698.40,189.60"/>
    </edge>
    <edge id=":cross_e_n_8" function="internal">
        <lane id=":cross_e_n_8_0" index="0" speed="16.67" length="14.40" shape="1692.80,195.20 1707.20,195.20"/>
        <lane id=":cross_e_n_8_1" index="1" speed="16.67" length="14.40" shape="1692.80,198.40 1707.20,198.40"/>
    </edge>
    <edge id=":cross_e_n_10" function="internal">
        <lane id=":cross_e_n_10_0" index="0" speed="3.65" length="1.44" shape="1692.80,198.40 1694.00,199.20"/>
    </edge>
    <edge id=":cross_e_n_14" function="internal">
        <lane id=":cross_e_n_14_0" index="0" speed="3.65" length="3.23" shape="1694.00,199.20 1694.40,200.00 1694.00,200.80 1692.80,201.60"/>
    </edge>
    <edge id=":cross_e_rail_0" function="internal">
        <lane id=":cross_e_rail_0_0" index="0" speed="13.89" length="6.20" shape="1698.40,101.50 1698.40,95.30"/>
    </edge>
    <edge id=":cross_e_rail_1" function="internal">
        <lane id=":cross_e_rail_1_0" index="0" allow="rail" speed="6.08" length="7.76" shape="1698.40,101.50 1698.79,100.14 1699.98,99.18 1701.94,98.59 1704.70,98.40"/>
    </edge>
    <edge id=":cross_e_rail_2" function="internal">
        <lane id=":cross_e_rail_2_0" index="0" allow="rail" speed="5.04" length="5.00" shape="1701.60,95.30 1701.79,96.66 1702.37,97.62 1703.34,98.21 1704.70,98.40"/>
    </edge>
    <edge id=":cross_e_rail_3" function="internal">
        <lane id=":cross_e_rail_3_0" index="0" speed="13.89" length="6.20" shape="1701.60,95.30 1701.60,101.50"/>
    </edge>
    <edge id=":cross_e_rail_4" function="internal">
        <lane id=":cross_e_rail_4_0" index="0" allow="rail" speed="5.75" length="5.00" shape="1695.30,98.40 1696.66,98.21 1697.62,97.63 1698.21,96.66 1698.40,95.30"/>
    </edge>
    <edge id=":cross_e_rail_5" function="internal">
        <lane id=":cross_e_rail_5_0" index="0" allow="rail" speed="33.33" length="9.40" shape="1695.30,98.40 1704.70,98.40"/>
    </edge>
    <edge id=":cross_e_rail_6" function="internal">
        <lane id=":cross_e_rail_6_0" index="0" allow="rail" speed="6.99" length="7.76" shape="1695.30,98.40 1698.06,98.59 1700.03,99.18 1701.21,100.14 1701.60,101.50"/>
    </edge>
    <edge id=":cross_e_s_0" function="internal">
        <lane id=":cross_e_s_0_0" index="0" speed="6.51" length="9.03" shape="1698.40,10.40 1698.05,7.95 1697.00,6.20 1695.25,5.15 1692.80,4.80"/>
    </edge>
    <edge id=":cross_e_s_1" function="internal">
        <lane id=":cross_e_s_1_0" index="0" speed="8.67" length="16.85" shape="1698.40,10.40 1698.95,5.15 1700.60,1.40 1703.35,-0.85 1707.20,-1.60"/>
    </edge>
    <edge id=":cross_e_s_2" function="internal">
        <lane id=":cross_e_s_2_0" index="0" speed="3.65" length="1.44" shape="1698.40,10.40 1699.20,9.20"/>
    </edge>
    <edge id=":cross_e_s_11" function="internal">
        <lane id=":cross_e_s_11_0" index="0" speed="3.65" length="3.23" shape="1699.20,9.20 1700.00,8.80 1700.80,9.20 1701.60,10.40"/>
    </edge>
    <edge id=":cross_e_s_3" function="internal">
        <lane id=":cross_e_s_3_0" index="0" speed="6.51" length="9.03" shape="1707.20,4.80 1704.75,5.15 1703.00,6.20 1701.95,7.95 1701.60,10.40"/>
    </edge>
    <edge id=":cross_e_s_4" function="internal">
        <lane id=":cross_e_s_4_0" index="0" speed="16.67" length="14.40" shape="1707.20,4.80 1692.80,4.80"/>
        <lane id=":cross_e_s_4_1" index="1" speed="16.67" length="14.40" shape="1707.20,1.60 1692.80,1.60"/>
    </edge>
    <edge id=":cross_e_s_6" function="internal">
        <lane id=":cross_e_s_6_0" index="0" speed="3.65" length="1.44" shape="1707.20,1.60 1706.00,0.80"/>
    </edge>
    <edge id=":cross_e_s_12" function="internal">
        <lane id=":cross_e_s_12_0" index="0" speed="3.65" length="3.23" shape="1706.00,0.80 1705.60,0.00 1706.00,-0.80 1707.20,-1.60"/>
    </edge>
    <edge id=":cross_e_s_7" function="internal">
        <lane id=":cross_e_s_7_0" index="0" speed="16.67" length="14.40" shape="1692.80,-4.80 1707.20,-4.80"/>
        <lane id=":cross_e_s_7_1" index="1" speed="16.67" length="14.40" shape="1692.80,-1.60 1707.20,-1.60"/>
    </edge>
    <edge id=":cross_e_s_9" function="internal">
        <lane id=":cross_e_s_9_0" index="0" speed="8.67" length="3.71" shape="1692.80,-1.60 1696.44,-0.89"/>
    </edge>
    <edge id=":cross_e_s_10" function="internal">
        <lane id=":cross_e_s_10_0" index="0" speed="3.65" length="1.44" shape="1692.80,-1.60 1694.00,-0.80"/>
    </edge>
    <edge id=":cross_e_s_13" function="internal">
        <lane id=":cross_e_s_13_0" index="0" speed="8.67" length="13.14" shape="1696.44,-0.89 1696.65,-0.85 1699.40,1.40 1701.05,5.15 1701.60,10.40"/>
    </edge>
    <edge id=":cross_e_s_14" function="internal">
        <lane id=":cross_e_s_14_0" index="0" speed="3.65" length="3.23" shape="1694.00,-0.80 1694.40,0.00 1694.00,0.80 1692.80,1.60"/>
    </edge>
    <edge id=":cross_w_n_0" function="internal">
        <lane id=":cross_w_n_0_0" index="0" speed="16.67" length="14.40" shape="1307.20,204.80 1292.80,204.80"/>
        <lane id=":cross_w_n_0_1" index="1" speed="16.67" length="14.40" shape="1307.20,201.60 1292.80,201.60"/>
    </edge>
    <edge id=":cross_w_n_2" function="internal">
        <lane id=":cross_w_n_2_0" index="0" speed="8.67" length="3.71" shape="1307.20,201.60 1303.56,200.89"/>
    </edge>
    <edge id=":cross_w_n_3" function="internal">
        <lane id=":cross_w_n_3_0" index="0" speed="3.65" length="1.44" shape="1307.20,201.60 1306.00,200.80"/>
    </edge>
    <edge id=":cross_w_n_11" function="internal">
        <lane id=":cross_w_n_11_0" index="0" speed="8.67" length="13.14" shape="1303.56,200.89 1303.35,200.85 1300.60,198.60 1298.95,194.85 1298.40,189.60"/>
    </edge>
    <edge id=":cross_w_n_12" function="internal">
        <lane id=":cross_w_n_12_0" index="0" speed="3.65" length="3.23" shape="1306.00,200.80 1305.60,200.00 1306.00,199.20 1307.20,198.40"/>
    </edge>
    <edge id=":cross_w_n_4" function="internal">
        <lane id=":cross_w_n_4_0" index="0" speed="6.51" length="9.03" shape="1301.60,189.60 1301.95,192.05 1303.00,193.80 1304.75,194.85 1307.20,195.20"/>
    </edge>
    <edge id=":cross_w_n_5" function="internal">
        <lane id=":cross_w_n_5_0" index="0" speed="8.67" length="16.85" shape="1301.60,189.60 1301.05,194.85 1299.40,198.60 1296.65,200.85 1292.80,201.60"/>
    </edge>
    <edge id=":cross_w_n_6" function="internal">
        <lane id=":cross_w_n_6_0" index="0" speed="3.65" length="1.44" shape="1301.60,189.60 1300.80,190.80"/>
    </edge>
    <edge id=":cross_w_n_13" function="internal">
        <lane id=":cross_w_n_13_0" index="0" speed="3.65" length="3.23" shape="1300.80,190.80 1300.00,191.20 1299.20,190.80 1298.40,189.60"/>
    </edge>
    <edge id=":cross_w_n_7" function="internal">
        <lane id=":cross_w_n_7_0" index="0" speed="6.51" length="9.03" shape="1292.80,195.20 1295.25,194.85 1297.00,193.80 1298.05,192.05 1298.40,189.60"/>
    </edge>
    <edge id=":cross_w_n_8" function="internal">
        <lane id=":cross_w_n_8_0" index="0" speed="16.67" length="14.40" shape="1292.80,195.20 1307.20,195.20"/>
        <lane id=":cross_w_n_8_1" index="1" speed="16.67" length="14.40" shape="1292.80,198.40 1307.20,198.40"/>
    </edge>
    <edge id=":cross_w_n_10" function="internal">
        <lane id=":cross_w_n_10_0" index="0" speed="3.65" length="1.44" shape="1292.80,198.40 1294.00,199.20"/>
    </edge>
    <edge id=":cross_w_n_14" function="internal">
        <lane id=":cross_w_n_14_0" index="0" speed="3.65" length="3.23" shape="1294.00,199.20 1294.40,200.00 1294.00,200.80 1292.80,201.60"/>
    </edge>
    <edge id=":cross_w_rail_0" function="internal">
        <lane id=":cross_w_rail_0_0" index="0" speed="13.89" length="6.20" shape="1298.40,101.50 1298.40,95.30"/>
    </edge>
    <edge id=":cross_w_rail_1" function="internal">
        <lane id=":cross_w_rail_1_0" index="0" allow="rail" speed="6.08" length="7.76" shape="1298.40,101.50 1298.79,100.14 1299.97,99.18 1301.94,98.59 1304.70,98.40"/>
    </edge>
    <edge id=":cross_w_rail_2" function="internal">
        <lane id=":cross_w_rail_2_0" index="0" allow="rail" speed="5.04" length="5.00" shape="1301.60,95.30 1301.79,96.66 1302.38,97.62 1303.34,98.21 1304.70,98.40"/>
    </edge>
    <edge id=":cross_w_rail_3" function="internal">
        <lane id=":cross_w_rail_3_0" index="0" speed="13.89" length="6.20" shape="1301.60,95.30 1301.60,101.50"/>
    </edge>
    <edge id=":cross_w_rail_4" function="internal">
        <lane id=":cross_w_rail_4_0" index="0" allow="rail" speed="5.75" length="5.00" shape="1295.30,98.40 1296.66,98.21 1297.62,97.63 1298.21,96.66 1298.40,95.30"/>
    </edge>
    <edge id=":cross_w_rail_5" function="internal">
        <lane id=":cross_w_rail_5_0" index="0" allow="rail" speed="33.33" length="9.40" shape="1295.30,98.40 1304.70,98.40"/>
    </edge>
    <edge id=":cross_w_rail_6" function="internal">
        <lane id=":cross_w_rail_6_0" index="0" allow="rail" speed="6.99" length="7.76" shape="1295.30,98.40 1298.06,98.59 1300.03,99.18 1301.21,100.14 1301.60,101.50"/>
    </edge>
    <edge id=":cross_w_s_0" function="internal">
        <lane id=":cross_w_s_0_0" index="0" speed="6.51" length="9.03" shape="1298.40,10.40 1298.05,7.95 1297.00,6.20 1295.25,5.15 1292.80,4.80"/>
    </edge>
    <edge id=":cross_w_s_1" function="internal">
        <lane id=":cross_w_s_1_0" index="0" speed="8.67" length="16.85" shape="1298.40,10.40 1298.95,5.15 1300.60,1.40 1303.35,-0.85 1307.20,-1.60"/>
    </edge>
    <edge id=":cross_w_s_2" function="internal">
        <lane id=":cross_w_s_2_0" index="0" speed="3.65" length="1.44" shape="1298.40,10.40 1299.20,9.20"/>
    </edge>
    <edge id=":cross_w_s_11" function="internal">
        <lane id=":cross_w_s_11_0" index="0" speed="3.65" length="3.23" shape="1299.20,9.20 1300.00,8.80 1300.80,9.20 1301.60,10.40"/>
    </edge>
    <edge id=":cross_w_s_3" function="internal">
        <lane id=":cross_w_s_3_0" index="0" speed="6.51" length="9.03" shape="1307.20,4.80 1304.75,5.15 1303.00,6.20 1301.95,7.95 1301.60,10.40"/>
    </edge>
    <edge id=":cross_w_s_4" function="internal">
        <lane id=":cross_w_s_4_0" index="0" speed="16.67" length="14.40" shape="1307.20,4.80 1292.80,4.80"/>
        <lane id=":cross_w_s_4_1" index="1" speed="16.67" length="14.40" shape="1307.20,1.60 1292.80,1.60"/>
    </edge>
    <edge id=":cross_w_s_6" function="internal">
        <lane id=":cross_w_s_6_0" index="0" speed="3.65" length="1.44" shape="1307.20,1.60 1306.00,0.80"/>
    </edge>
    <edge id=":cross_w_s_12" function="internal">
        <lane id=":cross_w_s_12_0" index="0" speed="3.65" length="3.23" shape="1306.00,0.80 1305.60,0.00 1306.00,-0.80 1307.20,-1.60"/>
    </edge>
    <edge id=":cross_w_s_7" function="internal">
        <lane id=":cross_w_s_7_0" index="0" speed="16.67" length="14.40" shape="1292.80,-4.80 1307.20,-4.80"/>
        <lane id=":cross_w_s_7_1" index="1" speed="16.67" length="14.40" shape="1292.80,-1.60 1307.20,-1.60"/>
    </edge>
    <edge id=":cross_w_s_9" function="internal">
        <lane id=":cross_w_s_9_0" index="0" speed="8.67" length="3.71" shape="1292.80,-1.60 1296.44,-0.89"/>
    </edge>
    <edge id=":cross_w_s_10" function="internal">
        <lane id=":cross_w_s_10_0" index="0" speed="3.65" length="1.44" shape="1292.80,-1.60 1294.00,-0.80"/>
    </edge>
    <edge id=":cross_w_s_13" function="internal">
        <lane id=":cross_w_s_13_0" index="0" speed="8.67" length="13.14" shape="1296.44,-0.89 1296.65,-0.85 1299.40,1.40 1301.05,5.15 1301.60,10.40"/>
    </edge>
    <edge id=":cross_w_s_14" function="internal">
        <lane id=":cross_w_s_14_0" index="0" speed="3.65" length="3.23" shape="1294.00,-0.80 1294.40,0.00 1294.00,0.80 1292.80,1.60"/>
    </edge>
    <edge id=":n_e_0" function="internal">
        <lane id=":n_e_0_0" index="0" speed="3.65" length="4.67" shape="2000.00,198.40 2001.20,199.20 2001.60,200.00 2001.20,200.80 2000.00,201.60"/>
    </edge>
    <edge id=":n_w_0" function="internal">
        <lane id=":n_w_0_0" index="0" speed="3.65" length="4.67" shape="1000.00,201.60 998.80,200.80 998.40,200.00 998.80,199.20 1000.00,198.40"/>
    </edge>
    <edge id=":s_e_0" function="internal">
        <lane id=":s_e_0_0" index="0" speed="3.65" length="4.67" shape="2000.00,-1.60 2001.20,-0.80 2001.60,0.00 2001.20,0.80 2000.00,1.60"/>
    </edge>
    <edge id=":s_w_0" function="internal">
        <lane id=":s_w_0_0" index="0" speed="3.65" length="4.67" shape="1000.00,1.60 998.80,0.80 998.40,0.00 998.80,-0.80 1000.00,-1.60"/>
    </edge>

    <edge id="cross_e_to_cross_w_n" from="cross_e_n" to="cross_w_n" priority="-1">
        <lane id="cross_e_to_cross_w_n_0" index="0" speed="16.67" length="385.60" shape="1692.80,204.80 1307.20,204.80"/>
        <lane id="cross_e_to_cross_w_n_1" index="1" speed="16.67" length="385.60" shape="1692.80,201.60 1307.20,201.60"/>
    </edge>
    <edge id="cross_e_to_cross_w_s" from="cross_e_s" to="cross_w_s" priority="-1">
        <lane id="cross_e_to_cross_w_s_0" index="0" speed="16.67" length="385.60" shape="1692.80,4.80 1307.20,4.80"/>
        <lane id="cross_e_to_cross_w_s_1" index="1" speed="16.67" length="385.60" shape="1692.80,1.60 1307.20,1.60"/>
    </edge>
    <edge id="cross_e_to_n_e" from="cross_e_n" to="n_e" priority="-1">
        <lane id="cross_e_to_n_e_0" index="0" speed="16.67" length="292.80" shape="1707.20,195.20 2000.00,195.20"/>
        <lane id="cross_e_to_n_e_1" index="1" speed="16.67" length="292.80" shape="1707.20,198.40 2000.00,198.40"/>
    </edge>
    <edge id="cross_e_to_s_e" from="cross_e_s" to="s_e" priority="-1">
        <lane id="cross_e_to_s_e_0" index="0" speed="16.67" length="292.80" shape="1707.20,-4.80 2000.00,-4.80"/>
        <lane id="cross_e_to_s_e_1" index="1" speed="16.67" length="292.80" shape="1707.20,-1.60 2000.00,-1.60"/>
    </edge>
    <edge id="cross_w_to_cross_e_n" from="cross_w_n" to="cross_e_n" priority="-1">
        <lane id="cross_w_to_cross_e_n_0" index="0" speed="16.67" length="385.60" shape="1307.20,195.20 1692.80,195.20"/>
        <lane id="cross_w_to_cross_e_n_1" index="1" speed="16.67" length="385.60" shape="1307.20,198.40 1692.80,198.40"/>
    </edge>
    <edge id="cross_w_to_cross_e_s" from="cross_w_s" to="cross_e_s" priority="-1">
        <lane id="cross_w_to_cross_e_s_0" index="0" speed="16.67" length="385.60" shape="1307.20,-4.80 1692.80,-4.80"/>
        <lane id="cross_w_to_cross_e_s_1" index="1" speed="16.67" length="385.60" shape="1307.20,-1.60 1692.80,-1.60"/>
    </edge>
    <edge id="cross_w_to_n_w" from="cross_w_n" to="n_w" priority="-1">
        <lane id="cross_w_to_n_w_0" index="0" speed="16.67" length="292.80" shape="1292.80,204.80 1000.00,204.80"/>
        <lane id="cross_w_to_n_w_1" index="1" speed="16.67" length="292.80" shape="1292.80,201.60 1000.00,201.60"/>
    </edge>
    <edge id="cross_w_to_s_w" from="cross_w_s" to="s_w" priority="-1">
        <lane id="cross_w_to_s_w_0" index="0" speed="16.67" length="292.80" shape="1292.80,4.80 1000.00,4.80"/>
        <lane id="cross_w_to_s_w_1" index="1" speed="16.67" length="292.80" shape="1292.80,1.60 1000.00,1.60"/>
    </edge>
    <edge id="n_e_to_cross_e" from="n_e" to="cross_e_n" priority="-1">
        <lane id="n_e_to_cross_e_0" index="0" speed="16.67" length="292.80" shape="2000.00,204.80 1707.20,204.80"/>
        <lane id="n_e_to_cross_e_1" index="1" speed="16.67" length="292.80" shape="2000.00,201.60 1707.20,201.60"/>
    </edge>
    <edge id="n_w_to_cross_w" from="n_w" to="cross_w_n" priority="-1">
        <lane id="n_w_to_cross_w_0" index="0" speed="16.67" length="292.80" shape="1000.00,195.20 1292.80,195.20"/>
        <lane id="n_w_to_cross_w_1" index="1" speed="16.67" length="292.80" shape="1000.00,198.40 1292.80,198.40"/>
    </edge>
    <edge id="rail_cross_e_to_e" from="cross_e_rail" to="rail_e" priority="-1">
        <lane id="rail_cross_e_to_e_0" index="0" allow="rail" speed="33.33" length="1295.30" shape="1704.70,98.40 3000.00,98.40"/>
    </edge>
    <edge id="rail_cross_w_to_e" from="cross_w_rail" to="cross_e_rail" priority="-1">
        <lane id="rail_cross_w_to_e_0" index="0" allow="rail" speed="33.33" length="390.60" shape="1304.70,98.40 1695.30,98.40"/>
    </edge>
    <edge id="rail_w_to_cross_w" from="rail_w" to="cross_w_rail" priority="-1">
        <lane id="rail_w_to_cross_w_0" index="0" allow="rail" speed="33.33" length="1295.30" shape="0.00,98.40 1295.30,98.40"/>
    </edge>
    <edge id="s_e_to_cross_e" from="s_e" to="cross_e_s" priority="-1">
        <lane id="s_e_to_cross_e_0" index="0" speed="16.67" length="292.80" shape="2000.00,4.80 1707.20,4.80"/>
        <lane id="s_e_to_cross_e_1" index="1" speed="16.67" length="292.80" shape="2000.00,1.60 1707.20,1.60"/>
    </edge>
    <edge id="s_w_to_cross_w" from="s_w" to="cross_w_s" priority="-1">
        <lane id="s_w_to_cross_w_0" index="0" speed="16.67" length="292.80" shape="1000.00,-4.80 1292.80,-4.80"/>
        <lane id="s_w_to_cross_w_1" index="1" speed="16.67" length="292.80" shape="1000.00,-1.60 1292.80,-1.60"/>
    </edge>
    <edge id="vert_e_n_to_rail" from="cross_e_n" to="cross_e_rail" priority="-1">
        <lane id="vert_e_n_to_rail_0" index="0" speed="13.89" length="88.10" shape="1698.40,189.60 1698.40,101.50"/>
    </edge>
    <edge id="vert_e_rail_to_n" from="cross_e_rail" to="cross_e_n" priority="-1">
        <lane id="vert_e_rail_to_n_0" index="0" speed="13.89" length="88.10" shape="1701.60,101.50 1701.60,189.60"/>
    </edge>
    <edge id="vert_e_rail_to_s" from="cross_e_rail" to="cross_e_s" priority="-1">
        <lane id="vert_e_rail_to_s_0" index="0" speed="13.89" length="84.90" shape="1698.40,95.30 1698.40,10.40"/>
    </edge>
    <edge id="vert_e_s_to_rail" from="cross_e_s" to="cross_e_rail" priority="-1">
        <lane id="vert_e_s_to_rail_0" index="0" speed="13.89" length="84.90" shape="1701.60,10.40 1701.60,95.30"/>
    </edge>
    <edge id="vert_w_n_to_rail" from="cross_w_n" to="cross_w_rail" priority="-1">
        <lane id="vert_w_n_to_rail_0" index="0" speed="13.89" length="88.10" shape="1298.40,189.60 1298.40,101.50"/>
    </edge>
    <edge id="vert_w_rail_to_n" from="cross_w_rail" to="cross_w_n" priority="-1">
        <lane id="vert_w_rail_to_n_0" index="0" speed="13.89" length="88.10" shape="1301.60,101.50 1301.60,189.60"/>
    </edge>
    <edge id="vert_w_rail_to_s" from="cross_w_rail" to="cross_w_s" priority="-1">
        <lane id="vert_w_rail_to_s_0" index="0" speed="13.89" length="84.90" shape="1298.40,95.30 1298.40,10.40"/>
    </edge>
    <edge id="vert_w_s_to_rail" from="cross_w_s" to="cross_w_rail" priority="-1">
        <lane id="vert_w_s_to_rail_0" index="0" speed="13.89" length="84.90" shape="1301.60,10.40 1301.60,95.30"/>
    </edge>

    <tlLogic id="cross_e_n" type="static" programID="0" offset="0">
        <phase duration="41" state="GGggrrrGGGg"/>
        <phase duration="4"  state="yyyyrrryyyy"/>
        <phase duration="41" state="rrrrGGgGrrr"/>
        <phase duration="4"  state="rrrryyyyrrr"/>
    </tlLogic>
    <tlLogic id="cross_e_s" type="static" programID="0" offset="0">
        <phase duration="41" state="rrrGGGgGGgg"/>
        <phase duration="4"  state="rrryyyyyyyy"/>
        <phase duration="41" state="GGgGrrrrrrr"/>
        <phase duration="4"  state="yyyyrrrrrrr"/>
    </tlLogic>
    <tlLogic id="cross_w_n" type="static" programID="0" offset="0">
        <phase duration="41" state="GGggrrrGGGg"/>
        <phase duration="4"  state="yyyyrrryyyy"/>
        <phase duration="41" state="rrrrGGgGrrr"/>
        <phase duration="4"  state="rrrryyyyrrr"/>
    </tlLogic>
    <tlLogic id="cross_w_s" type="static" programID="0" offset="0">
        <phase duration="41" state="rrrGGGgGGgg"/>
        <phase duration="4"  state="rrryyyyyyyy"/>
        <phase duration="41" state="GGgGrrrrrrr"/>
        <phase duration="4"  state="yyyyrrrrrrr"/>
    </tlLogic>

    <junction id="cross_e_n" type="traffic_light" x="1700.00" y="200.00" incLanes="n_e_to_cross_e_0 n_e_to_cross_e_1 vert_e_rail_to_n_0 cross_w_to_cross_e_n_0 cross_w_to_cross_e_n_1" intLanes=":cross_e_n_0_0 :cross_e_n_0_1 :cross_e_n_11_0 :cross_e_n_12_0 :cross_e_n_4_0 :cross_e_n_5_0 :cross_e_n_13_0 :cross_e_n_7_0 :cross_e_n_8_0 :cross_e_n_8_1 :cross_e_n_14_0" shape="1707.20,206.40 1707.20,193.60 1704.98,193.16 1704.20,192.60 1703.64,191.82 1703.31,190.82 1703.20,189.60 1696.80,189.60 1696.36,191.82 1695.80,192.60 1695.02,193.16 1694.02,193.49 1692.80,193.60 1692.80,206.40">
        <request index="0"  response="00000000000" foes="10000100000" cont="0"/>
        <request index="1"  response="00000000000" foes="10000100000" cont="0"/>
        <request index="2"  response="01110000000" foes="01111100000" cont="1"/>
        <request index="3"  response="01100000000" foes="01100000000" cont="1"/>
        <request index="4"  response="01100000000" foes="01100000000" cont="0"/>
        <request index="5"  response="01100000111" foes="11100000111" cont="0"/>
        <request index="6"  response="00010000100" foes="00010000100" cont="1"/>
        <request index="7"  response="00000000000" foes="00001000100" cont="0"/>
        <request index="8"  response="00000000000" foes="00000111100" cont="0"/>
        <request index="9"  response="00000000000" foes="00000111100" cont="0"/>
        <request index="10" response="00000100011" foes="00000100011" cont="1"/>
    </junction>
    <junction id="cross_e_rail" type="rail_crossing" x="1700.00" y="100.00" incLanes="vert_e_n_to_rail_0 vert_e_s_to_rail_0 rail_cross_w_to_e_0" intLanes=":cross_e_rail_0_0 :cross_e_rail_1_0 :cross_e_rail_2_0 :cross_e_rail_3_0 :cross_e_rail_4_0 :cross_e_rail_5_0 :cross_e_rail_6_0" shape="1696.80,101.50 1703.20,101.50 1703.37,100.67 1703.57,100.38 1703.87,100.17 1704.24,100.04 1704.70,100.00 1704.70,96.80 1703.87,96.63 1703.57,96.43 1703.37,96.13 1703.24,95.76 1703.20,95.30 1696.80,95.30 1696.63,96.13 1696.43,96.43 1696.13,96.63 1695.76,96.76 1695.30,96.80 1695.30,100.00 1696.13,100.17 1696.43,100.38 1696.63,100.67 1696.76,101.04">
        <request index="0" response="1110000" foes="1110000" cont="0"/>
        <request index="1" response="1101100" foes="1101100" cont="0"/>
        <request index="2" response="0100000" foes="0100010" cont="0"/>
        <request index="3" response="1100000" foes="1100010" cont="0"/>
        <request index="4" response="0000000" foes="0000001" cont="0"/>
        <request index="5" response="0000000" foes="0001111" cont="0"/>
        <request index="6" response="0000000" foes="0001011" cont="0"/>
    </junction>
    <junction id="cross_e_s" type="traffic_light" x="1700.00" y="0.00" incLanes="vert_e_rail_to_s_0 s_e_to_cross_e_0 s_e_to_cross_e_1 cross_w_to_cross_e_s_0 cross_w_to_cross_e_s_1" intLanes=":cross_e_s_0_0 :cross_e_s_1_0 :cross_e_s_11_0 :cross_e_s_3_0 :cross_e_s_4_0 :cross_e_s_4_1 :cross_e_s_12_0 :cross_e_s_7_0 :cross_e_s_7_1 :cross_e_s_13_0 :cross_e_s_14_0" shape="1696.80,10.40 1703.20,10.40 1703.64,8.18 1704.20,7.40 1704.98,6.84 1705.98,6.51 1707.20,6.40 1707.20,-6.40 1692.80,-6.40 1692.80,6.40 1695.02,6.84 1695.80,7.40 1696.36,8.18 1696.69,9.18">
        <request index="0"  response="00000110000" foes="00000110000" cont="0"/>
        <request index="1"  response="01110110000" foes="01111110000" cont="0"/>
        <request index="2"  response="01000001000" foes="01000001000" cont="1"/>
        <request index="3"  response="00000000000" foes="01000000100" cont="0"/>
        <request index="4"  response="00000000000" foes="11000000011" cont="0"/>
        <request index="5"  response="00000000000" foes="11000000011" cont="0"/>
        <request index="6"  response="00110000010" foes="00110000010" cont="1"/>
        <request index="7"  response="00000000000" foes="00001000010" cont="0"/>
        <request index="8"  response="00000000000" foes="00001000010" cont="0"/>
        <request index="9"  response="00000111000" foes="00000111110" cont="1"/>
        <request index="10" response="00000110000" foes="00000110000" cont="1"/>
    </junction>
    <junction id="cross_w_n" type="traffic_light" x="1300.00" y="200.00" incLanes="cross_e_to_cross_w_n_0 cross_e_to_cross_w_n_1 vert_w_rail_to_n_0 n_w_to_cross_w_0 n_w_to_cross_w_1" intLanes=":cross_w_n_0_0 :cross_w_n_0_1 :cross_w_n_11_0 :cross_w_n_12_0 :cross_w_n_4_0 :cross_w_n_5_0 :cross_w_n_13_0 :cross_w_n_7_0 :cross_w_n_8_0 :cross_w_n_8_1 :cross_w_n_14_0" shape="1307.20,206.40 1307.20,193.60 1304.98,193.16 1304.20,192.60 1303.64,191.82 1303.31,190.82 1303.20,189.60 1296.80,189.60 1296.36,191.82 1295.80,192.60 1295.02,193.16 1294.02,193.49 1292.80,193.60 1292.80,206.40">
        <request index="0"  response="00000000000" foes="10000100000" cont="0"/>
        <request index="1"  response="00000000000" foes="10000100000" cont="0"/>
        <request index="2"  response="01110000000" foes="01111100000" cont="1"/>
        <request index="3"  response="01100000000" foes="01100000000" cont="1"/>
        <request index="4"  response="01100000000" foes="01100000000" cont="0"/>
        <request index="5"  response="01100000111" foes="11100000111" cont="0"/>
        <request index="6"  response="00010000100" foes="00010000100" cont="1"/>
        <request index="7"  response="00000000000" foes="00001000100" cont="0"/>
        <request index="8"  response="00000000000" foes="00000111100" cont="0"/>
        <request index="9"  response="00000000000" foes="00000111100" cont="0"/>
        <request index="10" response="00000100011" foes="00000100011" cont="1"/>
    </junction>
    <junction id="cross_w_rail" type="rail_crossing" x="1300.00" y="100.00" incLanes="vert_w_n_to_rail_0 vert_w_s_to_rail_0 rail_w_to_cross_w_0" intLanes=":cross_w_rail_0_0 :cross_w_rail_1_0 :cross_w_rail_2_0 :cross_w_rail_3_0 :cross_w_rail_4_0 :cross_w_rail_5_0 :cross_w_rail_6_0" shape="1296.80,101.50 1303.20,101.50 1303.37,100.67 1303.57,100.38 1303.87,100.17 1304.24,100.04 1304.70,100.00 1304.70,96.80 1303.87,96.63 1303.57,96.43 1303.37,96.13 1303.24,95.76 1303.20,95.30 1296.80,95.30 1296.63,96.13 1296.43,96.42 1296.13,96.63 1295.76,96.76 1295.30,96.80 1295.30,100.00 1296.13,100.17 1296.43,100.38 1296.63,100.67 1296.76,101.04">
        <request index="0" response="1110000" foes="1110000" cont="0"/>
        <request index="1" response="1101100" foes="1101100" cont="0"/>
        <request index="2" response="0100000" foes="0100010" cont="0"/>
        <request index="3" response="1100000" foes="1100010" cont="0"/>
        <request index="4" response="0000000" foes="0000001" cont="0"/>
        <request index="5" response="0000000" foes="0001111" cont="0"/>
        <request index="6" response="0000000" foes="0001011" cont="0"/>
    </junction>