<?xml version="1.0" encoding="UTF-8"?>
<routes>
    <vType id="car" length="4.5" maxSpeed="20" accel="2.6" decel="4.5" sigma="0.5" color="255,140,0"/>
    <route id="route_east" edges="n_in_w n_w_e v_e_n_s v_e_x_s s_out_e"/>
    <flow id="cars" type="car" route="route_east" begin="0" end="1800" vehsPerHour="1200"/>
</routes>
