<?xml version="1.0" encoding="UTF-8"?>
<routes>
    <vType id="car" length="4.5" width="2.0" height="1.5" maxSpeed="20" accel="2.6" decel="4.5" sigma="0.5" 
        color="70,130,180" guiShape="passenger" imgFile="car.png"/>
    <vType id="train" vClass="rail" length="150" width="3.5" height="4.0" maxSpeed="33.33" accel="0.5" decel="0.5" 
        color="178,34,34" guiShape="rail" imgFile="train.png"/>
    
    <route id="north_eastbound" edges="n_in_w n_w_e n_out_e"/>
    <route id="north_westbound" edges="n_in_e n_e_w n_out_w"/>
    <route id="south_eastbound" edges="s_in_w s_w_e s_out_e"/>
    <route id="south_westbound" edges="s_in_e s_e_w s_out_w"/>
    
    <route id="west_north_south" edges="v_w_n_s v_w_x_s"/>
    <route id="west_south_north" edges="v_w_s_n v_w_x_n"/>
    <route id="east_north_south" edges="v_e_n_s v_e_x_s"/>
    <route id="east_south_north" edges="v_e_s_n v_e_x_n"/>
    
    <route id="train_route" edges="rail_in rail_mid rail_out"/>
    
    <flow id="f_north_eb" type="car" route="north_eastbound" begin="0" end="1200" vehsPerHour="300"/>
    <flow id="f_north_wb" type="car" route="north_westbound" begin="0" end="1200" vehsPerHour="300"/>
    <flow id="f_south_eb" type="car" route="south_eastbound" begin="0" end="1200" vehsPerHour="300"/>
    <flow id="f_south_wb" type="car" route="south_westbound" begin="0" end="1200" vehsPerHour="300"/>
    
    <flow id="f_west_ns" type="car" route="west_north_south" begin="0" end="1200" vehsPerHour="75"/>
    <flow id="f_west_sn" type="car" route="west_south_north" begin="0" end="1200" vehsPerHour="75"/>
    <flow id="f_east_ns" type="car" route="east_north_south" begin="0" end="1200" vehsPerHour="75"/>
    <flow id="f_east_sn" type="car" route="east_south_north" begin="0" end="1200" vehsPerHour="75"/>
    
    <flow id="f_trains" type="train" route="train_route" begin="0" end="1200" period="180"/>
</routes>
