<?xml version="1.0" encoding="UTF-8"?>
<nodes>
    <node id="n_west" x="-2000" y="100.0" type="priority"/>
    <node id="n_east" x="2000" y="100.0" type="priority"/>
    <node id="s_west" x="-2000" y="-100.0" type="priority"/>
    <node id="s_east" x="2000" y="-100.0" type="priority"/>
    
    <node id="nw_junction" x="-150.0" y="100.0" type="priority"/>
    <node id="sw_junction" x="-150.0" y="-100.0" type="priority"/>
    <node id="west_crossing" x="-150.0" y="0" type="rail_crossing"/>
    
    <node id="ne_junction" x="150.0" y="100.0" type="priority"/>
    <node id="se_junction" x="150.0" y="-100.0" type="priority"/>
    <node id="east_crossing" x="150.0" y="0" type="rail_crossing"/>
</nodes>