<?xml version="1.0" encoding="UTF-8"?>
<configuration>
    <input>
        <net-file value="simulation.net.xml"/>
        <route-files value="simulation.rou.xml"/>
    </input>
    <time>
        <begin value="0"/>
        <end value="1200"/>
        <step-length value="0.1"/>
    </time>
    <gui_only>
        <gui-settings-file value="view.xml"/>
    </gui_only>
</configuration>
