<?xml version="1.0" encoding="UTF-8"?>
<connections>
    <connection from="n_in_w" to="v_w_n_s" fromLane="0" toLane="0"/>
    <connection from="n_in_w" to="n_w_e" fromLane="0" toLane="0"/>
    <connection from="v_w_x_s" to="s_w_e" fromLane="0" toLane="0"/>
    <connection from="n_w_e" to="v_e_n_s" fromLane="0" toLane="0"/>
    <connection from="v_e_x_s" to="s_out_e" fromLane="0" toLane="0"/>
    <connection from="s_w_e" to="s_out_e" fromLane="0" toLane="0"/>
</connections>