<?xml version="1.0" encoding="UTF-8"?>
<nodes>
    <node id="west_far" x="-800" y="0" type="priority"/>
    <node id="west_int" x="-300" y="0" type="traffic_light"/>
    <node id="crossing" x="0" y="0" type="rail_crossing"/>
    <node id="east_int" x="300" y="0" type="traffic_light"/>
    <node id="east_far" x="800" y="0" type="priority"/>
    
    <node id="rail_s" x="0" y="-1000" type="priority"/>
    <node id="rail_n" x="0" y="1000" type="priority"/>
    
    <node id="north" x="0" y="400" type="priority"/>
    <node id="south" x="0" y="-400" type="priority"/>
</nodes>
