<?xml version="1.0" encoding="UTF-8"?>
<routes>
    <vType id="car" length="4.5" maxSpeed="20" accel="2.6" decel="4.5" color="100,150,200"/>
    <vType id="train_slow" vClass="rail" length="150" maxSpeed="25" color="150,30,30"/>
    <vType id="train_med" vClass="rail" length="150" maxSpeed="33" color="180,40,40"/>
    <vType id="train_fast" vClass="rail" length="150" maxSpeed="39" color="200,50,50"/>
    
    <route id="r_we" edges="we1 we2 we3 we4"/>
    <route id="r_ew" edges="ew1 ew2 ew3 ew4"/>
    <route id="r_rail" edges="rail"/>
    
    <flow id="cars_we" type="car" route="r_we" begin="0" end="3600" vehsPerHour="400"/>
    <flow id="cars_ew" type="car" route="r_ew" begin="0" end="3600" vehsPerHour="400"/>
    <flow id="trains_s" type="train_slow" route="r_rail" begin="0" period="540"/>
    <flow id="trains_m" type="train_med" route="r_rail" begin="180" period="540"/>
    <flow id="trains_f" type="train_fast" route="r_rail" begin="360" period="540"/>
</routes>