<?xml version="1.0" encoding="UTF-8"?>

<!-- generated on 2025-12-06 02:23:34 by Eclipse SUMO netconvert Version 1.12.0
<configuration xmlns:xsi="http://www.w3.org/2001/XMLSchema-instance" xsi:noNamespaceSchemaLocation="http://sumo.dlr.de/xsd/netconvertConfiguration.xsd">

    <input>
        <node-files value="thresholds.nod.xml"/>
        <edge-files value="thresholds.edg.xml"/>
    </input>

    <output>
        <output-file value="thresholds.net.xml"/>
    </output>

    <report>
        <no-warnings value="true"/>
        <aggregate-warnings value="5"/>
    </report>

</configuration>
-->

<net version="1.9" junctionCornerDetail="5" limitTurnSpeed="5.50" xmlns:xsi="http://www.w3.org/2001/XMLSchema-instance" xsi:noNamespaceSchemaLocation="http://sumo.dlr.de/xsd/net_file.xsd">

    <location netOffset="800.00,1000.00" convBoundary="0.00,0.00,1600.00,2000.00" origBoundary="-800.00,-1000.00,800.00,1000.00" projParameter="!"/>

    <edge id=":crossing_0" function="internal">
        <lane id=":crossing_0_0" index="0" speed="16.67" length="0.10" shape="800.00,1004.80 800.00,1004.80"/>
        <lane id=":crossing_0_1" index="1" speed="16.67" length="0.10" shape="800.00,1001.60 800.00,1001.60"/>
    </edge>
    <edge id=":crossing_2" function="internal">
        <lane id=":crossing_2_0" index="0" speed="16.67" length="0.10" shape="800.00,995.20 800.00,995.20"/>
        <lane id=":crossing_2_1" index="1" speed="16.67" length="0.10" shape="800.00,998.40 800.00,998.40"/>
    </edge>
    <edge id=":east_far_0" function="internal">
        <lane id=":east_far_0_0" index="0" speed="3.65" length="4.67" shape="1600.00,998.40 1601.20,999.20 1601.60,1000.00 1601.20,1000.80 1600.00,1001.60"/>
    </edge>
    <edge id=":east_int_0" function="internal">
        <lane id=":east_int_0_0" index="0" speed="16.67" length="0.10" shape="1100.00,1004.80 1100.00,1004.80"/>
        <lane id=":east_int_0_1" index="1" speed="16.67" length="0.10" shape="1100.00,1001.60 1100.00,1001.60"/>
    </edge>
    <edge id=":east_int_2" function="internal">
        <lane id=":east_int_2_0" index="0" speed="16.67" length="0.10" shape="1100.00,995.20 1100.00,995.20"/>
        <lane id=":east_int_2_1" index="1" speed="16.67" length="0.10" shape="1100.00,998.40 1100.00,998.40"/>
    </edge>
    <edge id=":west_far_0" function="internal">
        <lane id=":west_far_0_0" index="0" speed="3.65" length="4.67" shape="0.00,1001.60 -1.20,1000.80 -1.60,1000.00 -1.20,999.20 0.00,998.40"/>
    </edge>
    <edge id=":west_int_0" function="internal">
        <lane id=":west_int_0_0" index="0" speed="16.67" length="0.10" shape="500.00,1004.80 500.00,1004.80"/>
        <lane id=":west_int_0_1" index="1" speed="16.67" length="0.10" shape="500.00,1001.60 500.00,1001.60"/>
    </edge>
    <edge id=":west_int_2" function="internal">
        <lane id=":west_int_2_0" index="0" speed="16.67" length="0.10" shape="500.00,995.20 500.00,995.20"/>
        <lane id=":west_int_2_1" index="1" speed="16.67" length="0.10" shape="500.00,998.40 500.00,998.40"/>
    </edge>

    <edge id="ew1" from="east_far" to="east_int" priority="-1">
        <lane id="ew1_0" index="0" speed="16.67" length="500.00" shape="1600.00,1004.80 1100.00,1004.80"/>
        <lane id="ew1_1" index="1" speed="16.67" length="500.00" shape="1600.00,1001.60 1100.00,1001.60"/>
    </edge>
    <edge id="ew2" from="east_int" to="crossing" priority="-1">
        <lane id="ew2_0" index="0" speed="16.67" length="300.00" shape="1100.00,1004.80 800.00,1004.80"/>
        <lane id="ew2_1" index="1" speed="16.67" length="300.00" shape="1100.00,1001.60 800.00,1001.60"/>
    </edge>
    <edge id="ew3" from="crossing" to="west_int" priority="-1">
        <lane id="ew3_0" index="0" speed="16.67" length="300.00" shape="800.00,1004.80 500.00,1004.80"/>
        <lane id="ew3_1" index="1" speed="16.67" length="300.00" shape="800.00,1001.60 500.00,1001.60"/>
    </edge>
    <edge id="ew4" from="west_int" to="west_far" priority="-1">
        <lane id="ew4_0" index="0" speed="16.67" length="500.00" shape="500.00,1004.80 0.00,1004.80"/>
        <lane id="ew4_1" index="1" speed="16.67" length="500.00" shape="500.00,1001.60 0.00,1001.60"/>
    </edge>
    <edge id="rail" from="rail_s" to="rail_n" priority="-1">
        <lane id="rail_0" index="0" allow="rail" speed="40.00" length="2000.00" shape="801.60,0.00 801.60,2000.00"/>
    </edge>
    <edge id="we1" from="west_far" to="west_int" priority="-1">
        <lane id="we1_0" index="0" speed="16.67" length="500.00" shape="0.00,995.20 500.00,995.20"/>
        <lane id="we1_1" index="1" speed="16.67" length="500.00" shape="0.00,998.40 500.00,998.40"/>
    </edge>
    <edge id="we2" from="west_int" to="crossing" priority="-1">
        <lane id="we2_0" index="0" speed="16.67" length="300.00" shape="500.00,995.20 800.00,995.20"/>
        <lane id="we2_1" index="1" speed="16.67" length="300.00" shape="500.00,998.40 800.00,998.40"/>
    </edge>
    <edge id="we3" from="crossing" to="east_int" priority="-1">
        <lane id="we3_0" index="0" speed="16.67" length="300.00" shape="800.00,995.20 1100.00,995.20"/>
        <lane id="we3_1" index="1" speed="16.67" length="300.00" shape="800.00,998.40 1100.00,998.40"/>
    </edge>
    <edge id="we4" from="east_int" to="east_far" priority="-1">
        <lane id="we4_0" index="0" speed="16.67" length="500.00" shape="1100.00,995.20 1600.00,995.20"/>
        <lane id="we4_1" index="1" speed="16.67" length="500.00" shape="1100.00,998.40 1600.00,998.40"/>
    </edge>

    <tlLogic id="east_int" type="static" programID="0" offset="0">
        <phase duration="81" state="GGGG"/>
        <phase duration="4"  state="yyyy"/>
        <phase duration="5"  state="rrrr"/>
    </tlLogic>
    <tlLogic id="west_int" type="static" programID="0" offset="0">
        <phase duration="81" state="GGGG"/>
        <phase duration="4"  state="yyyy"/>
        <phase duration="5"  state="rrrr"/>
    </tlLogic>

    <junction id="crossing" type="priority" x="800.00" y="1000.00" incLanes="ew2_0 ew2_1 we2_0 we2_1" intLanes=":crossing_0_0 :crossing_0_1 :crossing_2_0 :crossing_2_1" shape="800.00,1006.40 800.00,993.60 800.00,1006.40">
        <request index="0" response="0000" foes="0000" cont="0"/>
        <request index="1" response="0000" foes="0000" cont="0"/>
        <request index="2" response="0000" foes="0000" cont="0"/>
        <request index="3" response="0000" foes="0000" cont="0"/>
    </junction>
    <junction id="east_far" type="priority" x="1600.00" y="1000.00" incLanes="we4_0 we4_1" intLanes=":east_far_0_0" shape="1600.00,1000.00 1600.00,993.60 1600.00,1000.00">
        <request index="0" response="0" foes="0" cont="0"/>
    </junction>
    <junction id="east_int" type="traffic_light" x="1100.00" y="1000.00" incLanes="ew1_0 ew1_1 we3_0 we3_1" intLanes=":east_int_0_0 :east_int_0_1 :east_int_2_0 :east_int_2_1" shape="1100.00,1006.40 1100.00,993.60 1100.00,1006.40">
        <request index="0" response="0000" foes="0000" cont="0"/>
        <request index="1" response="0000" foes="0000" cont="0"/>
        <request index="2" response="0000" foes="0000" cont="0"/>
        <request index="3" response="0000" foes="0000" cont="0"/>
    </junction>
    <junction id="rail_n" type="dead_end" x="800.00" y="2000.00" incLanes="rail_0" intLanes="" shape="803.20,2000.00 800.00,2000.00"/>
    <junction id="rail_s" type="dead_end" x="800.00" y="0.00" incLanes="" intLanes="" shape="800.00,0.00 803.20,0.00"/>
    <junction id="west_far" type="priority" x="0.00" y="1000.00" incLanes="ew4_0 ew4_1" intLanes=":west_far_0_0" shape="0.00,1000.00 0.00,1006.40 0.00,1000.00">
        <request index="0" response="0" foes="0" cont="0"/>
    </junction>
    <junction id="west_int" type="traffic_light" x="500.00" y="1000.00" incLanes="ew3_0 ew3_1 we1_0 we1_1" intLanes=":west_int_0_0 :west_int_0_1 :west_int_2_0 :west_int_2_1" shape="500.00,1006.40 500.00,993.60 500.00,1006.40">
        <request index="0" response="0000" foes="0000" cont="0"/>
        <request index="1" response="0000" foes="0000" cont="0"/>
        <request index="2" response="0000" foes="0000" cont="0"/>
        <request index="3" response="0000" foes="0000" cont="0"/>
    </junction>

    <connection from="ew1" to="ew2" fromLane="0" toLane="0" via=":east_int_0_0" tl="east_int" linkIndex="0" dir="s" state="O"/>
    <connection from="ew1" to="ew2" fromLane="1" toLane="1" via=":east_int_0_1" tl="east_int" linkIndex="1" dir="s" state="O"/>
    <connection from="ew2" to="ew3" fromLane="0" toLane="0" via=":crossing_0_0" dir="s" state="M"/>
    <connection from="ew2" to="ew3" fromLane="1" toLane="1" via=":crossing_0_1" dir="s" state="M"/>
    <connection from="ew3" to="ew4" fromLane="0" toLane="0" via=":west_int_0_0" tl="west_int" linkIndex="0" dir="s" state="O"/>
    <connection from="ew3" to="ew4" fromLane="1" toLane="1" via=":west_int_0_1" tl="west_int" linkIndex="1" dir="s" state="O"/>
    <connection from="ew4" to="we1" fromLane="1" toLane="1" via=":west_far_0_0" dir="t" state="M"/>
    <connection from="we1" to="we2" fromLane="0" toLane="0" via=":west_int_2_0" tl="west_int" linkIndex="2" dir="s" state="O"/>
    <connection from="we1" to="we2" fromLane="1" toLane="1" via=":west_int_2_1" tl="west_int" linkIndex="3" dir="s" state="O"/>
    <connection from="we2" to="we3" fromLane="0" toLane="0" via=":crossing_2_0" dir="s" state="M"/>
    <connection from="we2" to="we3" fromLane="1" toLane="1" via=":crossing_2_1" dir="s" state="M"/>
    <connection from="we3" to="we4" fromLane="0" toLane="0" via=":east_int_2_0" tl="east_int" linkIndex="2" dir="s" state="O"/>
    <connection from="we3" to="we4" fromLane="1" toLane="1" via=":east_int_2_1" tl="east_int" linkIndex="3" dir="s" state="O"/>
    <connection from="we4" to="ew1" fromLane="1" toLane="1" via=":east_far_0_0" dir="t" state="M"/>

    <connection from=":crossing_0" to="ew3" fromLane="0" toLane="0" dir="s" state="M"/>
    <connection from=":crossing_0" to="ew3" fromLane="1" toLane="1" dir="s" state="M"/>
    <connection from=":crossing_2" to="we3" fromLane="0" toLane="0" dir="s" state="M"/>
    <connection from=":crossing_2" to="we3" fromLane="1" toLane="1" dir="s" state="M"/>
    <connection from=":east_far_0" to="ew1" fromLane="0" toLane="1" dir="t" state="M"/>
    <connection from=":east_int_0" to="ew2" fromLane="0" toLane="0" dir="s" state="M"/>
    <connection from=":east_int_0" to="ew2" fromLane="1" toLane="1" dir="s" state="M"/>
    <connection from=":east_int_2" to="we4" fromLane="0" toLane="0" dir="s" state="M"/>
    <connection from=":east_int_2" to="we4" fromLane="1" toLane="1" dir="s" state="M"/>
    <connection from=":west_far_0" to="we1" fromLane="0" toLane="1" dir="t" state="M"/>
    <connection from=":west_int_0" to="ew4" fromLane="0" toLane="0" dir="s" state="M"/>
    <connection from=":west_int_0" to="ew4" fromLane="1" toLane="1" dir="s" state="M"/>
    <connection from=":west_int_2" to="we2" fromLane="0" toLane="0" dir="s" state="M"/>
    <connection from=":west_int_2" to="we2" fromLane="1" toLane="1" dir="s" state="M"/>

</net>
