<?xml version="1.0" encoding="UTF-8"?>
<edges>
    <edge id="we1" from="west_far" to="west_int" numLanes="2" speed="16.67"/>
    <edge id="we2" from="west_int" to="crossing" numLanes="2" speed="16.67"/>
    <edge id="we3" from="crossing" to="east_int" numLanes="2" speed="16.67"/>
    <edge id="we4" from="east_int" to="east_far" numLanes="2" speed="16.67"/>
    <edge id="ew1" from="east_far" to="east_int" numLanes="2" speed="16.67"/>
    <edge id="ew2" from="east_int" to="crossing" numLanes="2" speed="16.67"/>
    <edge id="ew3" from="crossing" to="west_int" numLanes="2" speed="16.67"/>
    <edge id="ew4" from="west_int" to="west_far" numLanes="2" speed="16.67"/>
    <edge id="rail" from="rail_s" to="rail_n" numLanes="1" speed="40" allow="rail"/>
</edges>