<?xml version="1.0" encoding="UTF-8"?>
<nodes>
    <node id="start" x="-2000" y="0"/>
    <node id="end" x="2000" y="0"/>
</nodes>