<?xml version="1.0" encoding="UTF-8"?>

<!-- generated on 2026-01-05 21:52:48 by Eclipse SUMO netconvert Version 1.12.0
<configuration xmlns:xsi="http://www.w3.org/2001/XMLSchema-instance" xsi:noNamespaceSchemaLocation="http://sumo.dlr.de/xsd/netconvertConfiguration.xsd">

    <input>
        <node-files value="training.nod.xml"/>
        <edge-files value="training.edg.xml"/>
    </input>

    <output>
        <output-file value="training.net.xml"/>
    </output>

    <junctions>
        <no-turnarounds value="true"/>
    </junctions>

    <report>
        <no-warnings value="true"/>
        <aggregate-warnings value="5"/>
    </report>

</configuration>
-->

<net version="1.9" junctionCornerDetail="5" limitTurnSpeed="5.50" xmlns:xsi="http://www.w3.org/2001/XMLSchema-instance" xsi:noNamespaceSchemaLocation="http://sumo.dlr.de/xsd/net_file.xsd">

    <location netOffset="2000.00,0.00" convBoundary="0.00,0.00,4000.00,0.00" origBoundary="-2000.00,0.00,2000.00,0.00" projParameter="!"/>

    <edge id="track" from="start" to="end" priority="1">
        <lane id="track_0" index="0" speed="50.00" length="4000.00" shape="0.00,-1.60 4000.00,-1.60"/>
    </edge>

    <junction id="end" type="dead_end" x="4000.00" y="0.00" incLanes="track_0" intLanes="" shape="4000.00,-3.20 4000.00,0.00"/>
    <junction id="start" type="dead_end" x="0.00" y="0.00" incLanes="" intLanes="" shape="0.00,0.00 0.00,-3.20"/>

</net>
