<?xml version="1.0" encoding="UTF-8"?>
<nodes>
    <node id="n_w" x="-500" y="100" type="priority"/>
    <node id="n_e" x="500" y="100" type="priority"/>
    <node id="s_w" x="-500" y="-100" type="priority"/>
    <node id="s_e" x="500" y="-100" type="priority"/>
    
    <node id="rail_w" x="-700" y="0" type="priority"/>
    <node id="rail_e" x="700" y="0" type="priority"/>
    
    <node id="cross_w_n" x="-200" y="100" type="traffic_light"/>
    <node id="cross_w_rail" x="-200" y="0" type="rail_crossing"/>
    <node id="cross_w_s" x="-200" y="-100" type="traffic_light"/>
    
    <node id="cross_e_n" x="200" y="100" type="traffic_light"/>
    <node id="cross_e_rail" x="200" y="0" type="rail_crossing"/>
    <node id="cross_e_s" x="200" y="-100" type="traffic_light"/>
</nodes>
