<?xml version="1.0" encoding="UTF-8"?>

<!-- generated on 2025-12-01 15:24:48 by Eclipse SUMO netconvert Version 1.12.0
<configuration xmlns:xsi="http://www.w3.org/2001/XMLSchema-instance" xsi:noNamespaceSchemaLocation="http://sumo.dlr.de/xsd/netconvertConfiguration.xsd">

    <input>
        <node-files value="sumo/network.nod.xml"/>
        <edge-files value="sumo/network.edg.xml"/>
    </input>

    <output>
        <output-file value="sumo/network.net.xml"/>
    </output>

    <report>
        <aggregate-warnings value="5"/>
    </report>

</configuration>
-->

<net version="1.9" junctionCornerDetail="5" limitTurnSpeed="5.50" xmlns:xsi="http://www.w3.org/2001/XMLSchema-instance" xsi:noNamespaceSchemaLocation="http://sumo.dlr.de/xsd/net_file.xsd">

    <location netOffset="700.00,100.00" convBoundary="0.00,0.00,1400.00,200.00" origBoundary="-700.00,-100.00,700.00,100.00" projParameter="!"/>

    <edge id=":cross_e_n_0" function="internal">
        <lane id=":cross_e_n_0_0" index="0" speed="16.67" length="14.40" shape="907.20,204.80 892.80,204.80"/>
        <lane id=":cross_e_n_0_1" index="1" speed="16.67" length="14.40" shape="907.20,201.60 892.80,201.60"/>
    </edge>
    <edge id=":cross_e_n_2" function="internal">
        <lane id=":cross_e_n_2_0" index="0" speed="8.67" length="3.71" shape="907.20,201.60 903.56,200.89"/>
    </edge>
    <edge id=":cross_e_n_3" function="internal">
        <lane id=":cross_e_n_3_0" index="0" speed="3.65" length="1.44" shape="907.20,201.60 906.00,200.80"/>
    </edge>
    <edge id=":cross_e_n_11" function="internal">
        <lane id=":cross_e_n_11_0" index="0" speed="8.67" length="13.14" shape="903.56,200.89 903.35,200.85 900.60,198.60 898.95,194.85 898.40,189.60"/>
    </edge>
    <edge id=":cross_e_n_12" function="internal">
        <lane id=":cross_e_n_12_0" index="0" speed="3.65" length="3.23" shape="906.00,200.80 905.60,200.00 906.00,199.20 907.20,198.40"/>
    </edge>
    <edge id=":cross_e_n_4" function="internal">
        <lane id=":cross_e_n_4_0" index="0" speed="6.51" length="9.03" shape="901.60,189.60 901.95,192.05 903.00,193.80 904.75,194.85 907.20,195.20"/>
    </edge>
    <edge id=":cross_e_n_5" function="internal">
        <lane id=":cross_e_n_5_0" index="0" speed="8.67" length="16.85" shape="901.60,189.60 901.05,194.85 899.40,198.60 896.65,200.85 892.80,201.60"/>
    </edge>
    <edge id=":cross_e_n_6" function="internal">
        <lane id=":cross_e_n_6_0" index="0" speed="3.65" length="1.44" shape="901.60,189.60 900.80,190.80"/>
    </edge>
    <edge id=":cross_e_n_13" function="internal">
        <lane id=":cross_e_n_13_0" index="0" speed="3.65" length="3.23" shape="900.80,190.80 900.00,191.20 899.20,190.80 898.40,189.60"/>
    </edge>
    <edge id=":cross_e_n_7" function="internal">
        <lane id=":cross_e_n_7_0" index="0" speed="6.51" length="9.03" shape="892.80,195.20 895.25,194.85 897.00,193.80 898.05,192.05 898.40,189.60"/>
    </edge>
    <edge id=":cross_e_n_8" function="internal">
        <lane id=":cross_e_n_8_0" index="0" speed="16.67" length="14.40" shape="892.80,195.20 907.20,195.20"/>
        <lane id=":cross_e_n_8_1" index="1" speed="16.67" length="14.40" shape="892.80,198.40 907.20,198.40"/>
    </edge>
    <edge id=":cross_e_n_10" function="internal">
        <lane id=":cross_e_n_10_0" index="0" speed="3.65" length="1.44" shape="892.80,198.40 894.00,199.20"/>
    </edge>
    <edge id=":cross_e_n_14" function="internal">
        <lane id=":cross_e_n_14_0" index="0" speed="3.65" length="3.23" shape="894.00,199.20 894.40,200.00 894.00,200.80 892.80,201.60"/>
    </edge>
    <edge id=":cross_e_rail_0" function="internal">
        <lane id=":cross_e_rail_0_0" index="0" speed="13.89" length="6.20" shape="898.40,101.50 898.40,95.30"/>
    </edge>
    <edge id=":cross_e_rail_1" function="internal">
        <lane id=":cross_e_rail_1_0" index="0" allow="rail" speed="6.08" length="7.76" shape="898.40,101.50 898.79,100.14 899.97,99.18 901.94,98.59 904.70,98.40"/>
    </edge>
    <edge id=":cross_e_rail_2" function="internal">
        <lane id=":cross_e_rail_2_0" index="0" allow="rail" speed="5.04" length="5.00" shape="901.60,95.30 901.79,96.66 902.38,97.62 903.34,98.21 904.70,98.40"/>
    </edge>
    <edge id=":cross_e_rail_3" function="internal">
        <lane id=":cross_e_rail_3_0" index="0" speed="13.89" length="6.20" shape="901.60,95.30 901.60,101.50"/>
    </edge>
    <edge id=":cross_e_rail_4" function="internal">
        <lane id=":cross_e_rail_4_0" index="0" allow="rail" speed="5.75" length="5.00" shape="895.30,98.40 896.66,98.21 897.62,97.63 898.21,96.66 898.40,95.30"/>
    </edge>
    <edge id=":cross_e_rail_5" function="internal">
        <lane id=":cross_e_rail_5_0" index="0" allow="rail" speed="33.33" length="9.40" shape="895.30,98.40 904.70,98.40"/>
    </edge>
    <edge id=":cross_e_rail_6" function="internal">
        <lane id=":cross_e_rail_6_0" index="0" allow="rail" speed="6.99" length="7.76" shape="895.30,98.40 898.06,98.59 900.02,99.18 901.21,100.14 901.60,101.50"/>
    </edge>
    <edge id=":cross_e_s_0" function="internal">
        <lane id=":cross_e_s_0_0" index="0" speed="6.51" length="9.03" shape="898.40,10.40 898.05,7.95 897.00,6.20 895.25,5.15 892.80,4.80"/>
    </edge>
    <edge id=":cross_e_s_1" function="internal">
        <lane id=":cross_e_s_1_0" index="0" speed="8.67" length="16.85" shape="898.40,10.40 898.95,5.15 900.60,1.40 903.35,-0.85 907.20,-1.60"/>
    </edge>
    <edge id=":cross_e_s_2" function="internal">
        <lane id=":cross_e_s_2_0" index="0" speed="3.65" length="1.44" shape="898.40,10.40 899.20,9.20"/>
    </edge>
    <edge id=":cross_e_s_11" function="internal">
        <lane id=":cross_e_s_11_0" index="0" speed="3.65" length="3.23" shape="899.20,9.20 900.00,8.80 900.80,9.20 901.60,10.40"/>
    </edge>
    <edge id=":cross_e_s_3" function="internal">
        <lane id=":cross_e_s_3_0" index="0" speed="6.51" length="9.03" shape="907.20,4.80 904.75,5.15 903.00,6.20 901.95,7.95 901.60,10.40"/>
    </edge>
    <edge id=":cross_e_s_4" function="internal">
        <lane id=":cross_e_s_4_0" index="0" speed="16.67" length="14.40" shape="907.20,4.80 892.80,4.80"/>
        <lane id=":cross_e_s_4_1" index="1" speed="16.67" length="14.40" shape="907.20,1.60 892.80,1.60"/>
    </edge>
    <edge id=":cross_e_s_6" function="internal">
        <lane id=":cross_e_s_6_0" index="0" speed="3.65" length="1.44" shape="907.20,1.60 906.00,0.80"/>
    </edge>
    <edge id=":cross_e_s_12" function="internal">
        <lane id=":cross_e_s_12_0" index="0" speed="3.65" length="3.23" shape="906.00,0.80 905.60,0.00 906.00,-0.80 907.20,-1.60"/>
    </edge>
    <edge id=":cross_e_s_7" function="internal">
        <lane id=":cross_e_s_7_0" index="0" speed="16.67" length="14.40" shape="892.80,-4.80 907.20,-4.80"/>
        <lane id=":cross_e_s_7_1" index="1" speed="16.67" length="14.40" shape="892.80,-1.60 907.20,-1.60"/>
    </edge>
    <edge id=":cross_e_s_9" function="internal">
        <lane id=":cross_e_s_9_0" index="0" speed="8.67" length="3.71" shape="892.80,-1.60 896.44,-0.89"/>
    </edge>
    <edge id=":cross_e_s_10" function="internal">
        <lane id=":cross_e_s_10_0" index="0" speed="3.65" length="1.44" shape="892.80,-1.60 894.00,-0.80"/>
    </edge>
    <edge id=":cross_e_s_13" function="internal">
        <lane id=":cross_e_s_13_0" index="0" speed="8.67" length="13.14" shape="896.44,-0.89 896.65,-0.85 899.40,1.40 901.05,5.15 901.60,10.40"/>
    </edge>
    <edge id=":cross_e_s_14" function="internal">
        <lane id=":cross_e_s_14_0" index="0" speed="3.65" length="3.23" shape="894.00,-0.80 894.40,0.00 894.00,0.80 892.80,1.60"/>
    </edge>
    <edge id=":cross_w_n_0" function="internal">
        <lane id=":cross_w_n_0_0" index="0" speed="16.67" length="14.40" shape="507.20,204.80 492.80,204.80"/>
        <lane id=":cross_w_n_0_1" index="1" speed="16.67" length="14.40" shape="507.20,201.60 492.80,201.60"/>
    </edge>
    <edge id=":cross_w_n_2" function="internal">
        <lane id=":cross_w_n_2_0" index="0" speed="8.67" length="3.71" shape="507.20,201.60 503.56,200.89"/>
    </edge>
    <edge id=":cross_w_n_3" function="internal">
        <lane id=":cross_w_n_3_0" index="0" speed="3.65" length="1.44" shape="507.20,201.60 506.00,200.80"/>
    </edge>
    <edge id=":cross_w_n_11" function="internal">
        <lane id=":cross_w_n_11_0" index="0" speed="8.67" length="13.14" shape="503.56,200.89 503.35,200.85 500.60,198.60 498.95,194.85 498.40,189.60"/>
    </edge>
    <edge id=":cross_w_n_12" function="internal">
        <lane id=":cross_w_n_12_0" index="0" speed="3.65" length="3.23" shape="506.00,200.80 505.60,200.00 506.00,199.20 507.20,198.40"/>
    </edge>
    <edge id=":cross_w_n_4" function="internal">
        <lane id=":cross_w_n_4_0" index="0" speed="6.51" length="9.03" shape="501.60,189.60 501.95,192.05 503.00,193.80 504.75,194.85 507.20,195.20"/>
    </edge>
    <edge id=":cross_w_n_5" function="internal">
        <lane id=":cross_w_n_5_0" index="0" speed="8.67" length="16.85" shape="501.60,189.60 501.05,194.85 499.40,198.60 496.65,200.85 492.80,201.60"/>
    </edge>
    <edge id=":cross_w_n_6" function="internal">
        <lane id=":cross_w_n_6_0" index="0" speed="3.65" length="1.44" shape="501.60,189.60 500.80,190.80"/>
    </edge>
    <edge id=":cross_w_n_13" function="internal">
        <lane id=":cross_w_n_13_0" index="0" speed="3.65" length="3.23" shape="500.80,190.80 500.00,191.20 499.20,190.80 498.40,189.60"/>
    </edge>
    <edge id=":cross_w_n_7" function="internal">
        <lane id=":cross_w_n_7_0" index="0" speed="6.51" length="9.03" shape="492.80,195.20 495.25,194.85 497.00,193.80 498.05,192.05 498.40,189.60"/>
    </edge>
    <edge id=":cross_w_n_8" function="internal">
        <lane id=":cross_w_n_8_0" index="0" speed="16.67" length="14.40" shape="492.80,195.20 507.20,195.20"/>
        <lane id=":cross_w_n_8_1" index="1" speed="16.67" length="14.40" shape="492.80,198.40 507.20,198.40"/>
    </edge>
    <edge id=":cross_w_n_10" function="internal">
        <lane id=":cross_w_n_10_0" index="0" speed="3.65" length="1.44" shape="492.80,198.40 494.00,199.20"/>
    </edge>
    <edge id=":cross_w_n_14" function="internal">
        <lane id=":cross_w_n_14_0" index="0" speed="3.65" length="3.23" shape="494.00,199.20 494.40,200.00 494.00,200.80 492.80,201.60"/>
    </edge>
    <edge id=":cross_w_rail_0" function="internal">
        <lane id=":cross_w_rail_0_0" index="0" speed="13.89" length="6.20" shape="498.40,101.50 498.40,95.30"/>
    </edge>
    <edge id=":cross_w_rail_1" function="internal">
        <lane id=":cross_w_rail_1_0" index="0" allow="rail" speed="6.08" length="7.76" shape="498.40,101.50 498.79,100.14 499.97,99.17 501.94,98.59 504.70,98.40"/>
    </edge>
    <edge id=":cross_w_rail_2" function="internal">
        <lane id=":cross_w_rail_2_0" index="0" allow="rail" speed="5.04" length="5.00" shape="501.60,95.30 501.79,96.66 502.38,97.62 503.34,98.21 504.70,98.40"/>
    </edge>
    <edge id=":cross_w_rail_3" function="internal">
        <lane id=":cross_w_rail_3_0" index="0" speed="13.89" length="6.20" shape="501.60,95.30 501.60,101.50"/>
    </edge>
    <edge id=":cross_w_rail_4" function="internal">
        <lane id=":cross_w_rail_4_0" index="0" allow="rail" speed="5.75" length="5.00" shape="495.30,98.40 496.66,98.21 497.62,97.63 498.21,96.66 498.40,95.30"/>
    </edge>
    <edge id=":cross_w_rail_5" function="internal">
        <lane id=":cross_w_rail_5_0" index="0" allow="rail" speed="33.33" length="9.40" shape="495.30,98.40 504.70,98.40"/>
    </edge>
    <edge id=":cross_w_rail_6" function="internal">
        <lane id=":cross_w_rail_6_0" index="0" allow="rail" speed="6.99" length="7.76" shape="495.30,98.40 498.06,98.59 500.02,99.18 501.21,100.14 501.60,101.50"/>
    </edge>
    <edge id=":cross_w_s_0" function="internal">
        <lane id=":cross_w_s_0_0" index="0" speed="6.51" length="9.03" shape="498.40,10.40 498.05,7.95 497.00,6.20 495.25,5.15 492.80,4.80"/>
    </edge>
    <edge id=":cross_w_s_1" function="internal">
        <lane id=":cross_w_s_1_0" index="0" speed="8.67" length="16.85" shape="498.40,10.40 498.95,5.15 500.60,1.40 503.35,-0.85 507.20,-1.60"/>
    </edge>
    <edge id=":cross_w_s_2" function="internal">
        <lane id=":cross_w_s_2_0" index="0" speed="3.65" length="1.44" shape="498.40,10.40 499.20,9.20"/>
    </edge>
    <edge id=":cross_w_s_11" function="internal">
        <lane id=":cross_w_s_11_0" index="0" speed="3.65" length="3.23" shape="499.20,9.20 500.00,8.80 500.80,9.20 501.60,10.40"/>
    </edge>
    <edge id=":cross_w_s_3" function="internal">
        <lane id=":cross_w_s_3_0" index="0" speed="6.51" length="9.03" shape="507.20,4.80 504.75,5.15 503.00,6.20 501.95,7.95 501.60,10.40"/>
    </edge>
    <edge id=":cross_w_s_4" function="internal">
        <lane id=":cross_w_s_4_0" index="0" speed="16.67" length="14.40" shape="507.20,4.80 492.80,4.80"/>
        <lane id=":cross_w_s_4_1" index="1" speed="16.67" length="14.40" shape="507.20,1.60 492.80,1.60"/>
    </edge>
    <edge id=":cross_w_s_6" function="internal">
        <lane id=":cross_w_s_6_0" index="0" speed="3.65" length="1.44" shape="507.20,1.60 506.00,0.80"/>
    </edge>
    <edge id=":cross_w_s_12" function="internal">
        <lane id=":cross_w_s_12_0" index="0" speed="3.65" length="3.23" shape="506.00,0.80 505.60,0.00 506.00,-0.80 507.20,-1.60"/>
    </edge>
    <edge id=":cross_w_s_7" function="internal">
        <lane id=":cross_w_s_7_0" index="0" speed="16.67" length="14.40" shape="492.80,-4.80 507.20,-4.80"/>
        <lane id=":cross_w_s_7_1" index="1" speed="16.67" length="14.40" shape="492.80,-1.60 507.20,-1.60"/>
    </edge>
    <edge id=":cross_w_s_9" function="internal">
        <lane id=":cross_w_s_9_0" index="0" speed="8.67" length="3.71" shape="492.80,-1.60 496.44,-0.89"/>
    </edge>
    <edge id=":cross_w_s_10" function="internal">
        <lane id=":cross_w_s_10_0" index="0" speed="3.65" length="1.44" shape="492.80,-1.60 494.00,-0.80"/>
    </edge>
    <edge id=":cross_w_s_13" function="internal">
        <lane id=":cross_w_s_13_0" index="0" speed="8.67" length="13.14" shape="496.44,-0.89 496.65,-0.85 499.40,1.40 501.05,5.15 501.60,10.40"/>
    </edge>
    <edge id=":cross_w_s_14" function="internal">
        <lane id=":cross_w_s_14_0" index="0" speed="3.65" length="3.23" shape="494.00,-0.80 494.40,0.00 494.00,0.80 492.80,1.60"/>
    </edge>
    <edge id=":n_e_0" function="internal">
        <lane id=":n_e_0_0" index="0" speed="3.65" length="4.67" shape="1200.00,198.40 1201.20,199.20 1201.60,200.00 1201.20,200.80 1200.00,201.60"/>
    </edge>
    <edge id=":n_w_0" function="internal">
        <lane id=":n_w_0_0" index="0" speed="3.65" length="4.67" shape="200.00,201.60 198.80,200.80 198.40,200.00 198.80,199.20 200.00,198.40"/>
    </edge>
    <edge id=":s_e_0" function="internal">
        <lane id=":s_e_0_0" index="0" speed="3.65" length="4.67" shape="1200.00,-1.60 1201.20,-0.80 1201.60,0.00 1201.20,0.80 1200.00,1.60"/>
    </edge>
    <edge id=":s_w_0" function="internal">
        <lane id=":s_w_0_0" index="0" speed="3.65" length="4.67" shape="200.00,1.60 198.80,0.80 198.40,0.00 198.80,-0.80 200.00,-1.60"/>
    </edge>

    <edge id="cross_e_to_cross_w_n" from="cross_e_n" to="cross_w_n" priority="-1">
        <lane id="cross_e_to_cross_w_n_0" index="0" speed="16.67" length="385.60" shape="892.80,204.80 507.20,204.80"/>
        <lane id="cross_e_to_cross_w_n_1" index="1" speed="16.67" length="385.60" shape="892.80,201.60 507.20,201.60"/>
    </edge>
    <edge id="cross_e_to_cross_w_s" from="cross_e_s" to="cross_w_s" priority="-1">
        <lane id="cross_e_to_cross_w_s_0" index="0" speed="16.67" length="385.60" shape="892.80,4.80 507.20,4.80"/>
        <lane id="cross_e_to_cross_w_s_1" index="1" speed="16.67" length="385.60" shape="892.80,1.60 507.20,1.60"/>
    </edge>
    <edge id="cross_e_to_n_e" from="cross_e_n" to="n_e" priority="-1">
        <lane id="cross_e_to_n_e_0" index="0" speed="16.67" length="292.80" shape="907.20,195.20 1200.00,195.20"/>
        <lane id="cross_e_to_n_e_1" index="1" speed="16.67" length="292.80" shape="907.20,198.40 1200.00,198.40"/>
    </edge>
    <edge id="cross_e_to_s_e" from="cross_e_s" to="s_e" priority="-1">
        <lane id="cross_e_to_s_e_0" index="0" speed="16.67" length="292.80" shape="907.20,-4.80 1200.00,-4.80"/>
        <lane id="cross_e_to_s_e_1" index="1" speed="16.67" length="292.80" shape="907.20,-1.60 1200.00,-1.60"/>
    </edge>
    <edge id="cross_w_to_cross_e_n" from="cross_w_n" to="cross_e_n" priority="-1">
        <lane id="cross_w_to_cross_e_n_0" index="0" speed="16.67" length="385.60" shape="507.20,195.20 892.80,195.20"/>
        <lane id="cross_w_to_cross_e_n_1" index="1" speed="16.67" length="385.60" shape="507.20,198.40 892.80,198.40"/>
    </edge>
    <edge id="cross_w_to_cross_e_s" from="cross_w_s" to="cross_e_s" priority="-1">
        <lane id="cross_w_to_cross_e_s_0" index="0" speed="16.67" length="385.60" shape="507.20,-4.80 892.80,-4.80"/>
        <lane id="cross_w_to_cross_e_s_1" index="1" speed="16.67" length="385.60" shape="507.20,-1.60 892.80,-1.60"/>
    </edge>
    <edge id="cross_w_to_n_w" from="cross_w_n" to="n_w" priority="-1">
        <lane id="cross_w_to_n_w_0" index="0" speed="16.67" length="292.80" shape="492.80,204.80 200.00,204.80"/>
        <lane id="cross_w_to_n_w_1" index="1" speed="16.67" length="292.80" shape="492.80,201.60 200.00,201.60"/>
    </edge>
    <edge id="cross_w_to_s_w" from="cross_w_s" to="s_w" priority="-1">
        <lane id="cross_w_to_s_w_0" index="0" speed="16.67" length="292.80" shape="492.80,4.80 200.00,4.80"/>
        <lane id="cross_w_to_s_w_1" index="1" speed="16.67" length="292.80" shape="492.80,1.60 200.00,1.60"/>
    </edge>
    <edge id="n_e_to_cross_e" from="n_e" to="cross_e_n" priority="-1">
        <lane id="n_e_to_cross_e_0" index="0" speed="16.67" length="292.80" shape="1200.00,204.80 907.20,204.80"/>
        <lane id="n_e_to_cross_e_1" index="1" speed="16.67" length="292.80" shape="1200.00,201.60 907.20,201.60"/>
    </edge>
    <edge id="n_w_to_cross_w" from="n_w" to="cross_w_n" priority="-1">
        <lane id="n_w_to_cross_w_0" index="0" speed="16.67" length="292.80" shape="200.00,195.20 492.80,195.20"/>
        <lane id="n_w_to_cross_w_1" index="1" speed="16.67" length="292.80" shape="200.00,198.40 492.80,198.40"/>
    </edge>
    <edge id="rail_cross_e_to_e" from="cross_e_rail" to="rail_e" priority="-1">
        <lane id="rail_cross_e_to_e_0" index="0" allow="rail" speed="33.33" length="495.30" shape="904.70,98.40 1400.00,98.40"/>
    </edge>
    <edge id="rail_cross_w_to_e" from="cross_w_rail" to="cross_e_rail" priority="-1">
        <lane id="rail_cross_w_to_e_0" index="0" allow="rail" speed="33.33" length="390.60" shape="504.70,98.40 895.30,98.40"/>
    </edge>
    <edge id="rail_w_to_cross_w" from="rail_w" to="cross_w_rail" priority="-1">
        <lane id="rail_w_to_cross_w_0" index="0" allow="rail" speed="33.33" length="495.30" shape="0.00,98.40 495.30,98.40"/>
    </edge>
    <edge id="s_e_to_cross_e" from="s_e" to="cross_e_s" priority="-1">
        <lane id="s_e_to_cross_e_0" index="0" speed="16.67" length="292.80" shape="1200.00,4.80 907.20,4.80"/>
        <lane id="s_e_to_cross_e_1" index="1" speed="16.67" length="292.80" shape="1200.00,1.60 907.20,1.60"/>
    </edge>
    <edge id="s_w_to_cross_w" from="s_w" to="cross_w_s" priority="-1">
        <lane id="s_w_to_cross_w_0" index="0" speed="16.67" length="292.80" shape="200.00,-4.80 492.80,-4.80"/>
        <lane id="s_w_to_cross_w_1" index="1" speed="16.67" length="292.80" shape="200.00,-1.60 492.80,-1.60"/>
    </edge>
    <edge id="vert_e_n_to_rail" from="cross_e_n" to="cross_e_rail" priority="-1">
        <lane id="vert_e_n_to_rail_0" index="0" speed="13.89" length="88.10" shape="898.40,189.60 898.40,101.50"/>
    </edge>
    <edge id="vert_e_rail_to_n" from="cross_e_rail" to="cross_e_n" priority="-1">
        <lane id="vert_e_rail_to_n_0" index="0" speed="13.89" length="88.10" shape="901.60,101.50 901.60,189.60"/>
    </edge>
    <edge id="vert_e_rail_to_s" from="cross_e_rail" to="cross_e_s" priority="-1">
        <lane id="vert_e_rail_to_s_0" index="0" speed="13.89" length="84.90" shape="898.40,95.30 898.40,10.40"/>
    </edge>
    <edge id="vert_e_s_to_rail" from="cross_e_s" to="cross_e_rail" priority="-1">
        <lane id="vert_e_s_to_rail_0" index="0" speed="13.89" length="84.90" shape="901.60,10.40 901.60,95.30"/>
    </edge>
    <edge id="vert_w_n_to_rail" from="cross_w_n" to="cross_w_rail" priority="-1">
        <lane id="vert_w_n_to_rail_0" index="0" speed="13.89" length="88.10" shape="498.40,189.60 498.40,101.50"/>
    </edge>
    <edge id="vert_w_rail_to_n" from="cross_w_rail" to="cross_w_n" priority="-1">
        <lane id="vert_w_rail_to_n_0" index="0" speed="13.89" length="88.10" shape="501.60,101.50 501.60,189.60"/>
    </edge>
    <edge id="vert_w_rail_to_s" from="cross_w_rail" to="cross_w_s" priority="-1">
        <lane id="vert_w_rail_to_s_0" index="0" speed="13.89" length="84.90" shape="498.40,95.30 498.40,10.40"/>
    </edge>
    <edge id="vert_w_s_to_rail" from="cross_w_s" to="cross_w_rail" priority="-1">
        <lane id="vert_w_s_to_rail_0" index="0" speed="13.89" length="84.90" shape="501.60,10.40 501.60,95.30"/>
    </edge>

    <tlLogic id="cross_e_n" type="static" programID="0" offset="0">
        <phase duration="41" state="GGggrrrGGGg"/>
        <phase duration="4"  state="yyyyrrryyyy"/>
        <phase duration="41" state="rrrrGGgGrrr"/>
        <phase duration="4"  state="rrrryyyyrrr"/>
    </tlLogic>
    <tlLogic id="cross_e_s" type="static" programID="0" offset="0">
        <phase duration="41" state="rrrGGGgGGgg"/>
        <phase duration="4"  state="rrryyyyyyyy"/>
        <phase duration="41" state="GGgGrrrrrrr"/>
        <phase duration="4"  state="yyyyrrrrrrr"/>
    </tlLogic>
    <tlLogic id="cross_w_n" type="static" programID="0" offset="0">
        <phase duration="41" state="GGggrrrGGGg"/>
        <phase duration="4"  state="yyyyrrryyyy"/>
        <phase duration="41" state="rrrrGGgGrrr"/>
        <phase duration="4"  state="rrrryyyyrrr"/>
    </tlLogic>
    <tlLogic id="cross_w_s" type="static" programID="0" offset="0">
        <phase duration="41" state="rrrGGGgGGgg"/>
        <phase duration="4"  state="rrryyyyyyyy"/>
        <phase duration="41" state="GGgGrrrrrrr"/>
        <phase duration="4"  state="yyyyrrrrrrr"/>
    </tlLogic>

    <junction id="cross_e_n" type="traffic_light" x="900.00" y="200.00" incLanes="n_e_to_cross_e_0 n_e_to_cross_e_1 vert_e_rail_to_n_0 cross_w_to_cross_e_n_0 cross_w_to_cross_e_n_1" intLanes=":cross_e_n_0_0 :cross_e_n_0_1 :cross_e_n_11_0 :cross_e_n_12_0 :cross_e_n_4_0 :cross_e_n_5_0 :cross_e_n_13_0 :cross_e_n_7_0 :cross_e_n_8_0 :cross_e_n_8_1 :cross_e_n_14_0" shape="907.20,206.40 907.20,193.60 904.98,193.16 904.20,192.60 903.64,191.82 903.31,190.82 903.20,189.60 896.80,189.60 896.36,191.82 895.80,192.60 895.02,193.16 894.02,193.49 892.80,193.60 892.80,206.40">
        <request index="0"  response="00000000000" foes="10000100000" cont="0"/>
        <request index="1"  response="00000000000" foes="10000100000" cont="0"/>
        <request index="2"  response="01110000000" foes="01111100000" cont="1"/>
        <request index="3"  response="01100000000" foes="01100000000" cont="1"/>
        <request index="4"  response="01100000000" foes="01100000000" cont="0"/>
        <request index="5"  response="01100000111" foes="11100000111" cont="0"/>
        <request index="6"  response="00010000100" foes="00010000100" cont="1"/>
        <request index="7"  response="00000000000" foes="00001000100" cont="0"/>
        <request index="8"  response="00000000000" foes="00000111100" cont="0"/>
        <request index="9"  response="00000000000" foes="00000111100" cont="0"/>
        <request index="10" response="00000100011" foes="00000100011" cont="1"/>
    </junction>
    <junction id="cross_e_rail" type="rail_crossing" x="900.00" y="100.00" incLanes="vert_e_n_to_rail_0 vert_e_s_to_rail_0 rail_cross_w_to_e_0" intLanes=":cross_e_rail_0_0 :cross_e_rail_1_0 :cross_e_rail_2_0 :cross_e_rail_3_0 :cross_e_rail_4_0 :cross_e_rail_5_0 :cross_e_rail_6_0" shape="896.80,101.50 903.20,101.50 903.37,100.67 903.58,100.38 903.87,100.17 904.24,100.04 904.70,100.00 904.70,96.80 903.87,96.63 903.58,96.43 903.37,96.13 903.24,95.76 903.20,95.30 896.80,95.30 896.63,96.13 896.42,96.43 896.13,96.63 895.76,96.76 895.30,96.80 895.30,100.00 896.13,100.17 896.42,100.38 896.63,100.67 896.76,101.04">
        <request index="0" response="1110000" foes="1110000" cont="0"/>
        <request index="1" response="1101100" foes="1101100" cont="0"/>
        <request index="2" response="0100000" foes="0100010" cont="0"/>
        <request index="3" response="1100000" foes="1100010" cont="0"/>
        <request index="4" response="0000000" foes="0000001" cont="0"/>
        <request index="5" response="0000000" foes="0001111" cont="0"/>
        <request index="6" response="0000000" foes="0001011" cont="0"/>
    </junction>
    <junction id="cross_e_s" type="traffic_light" x="900.00" y="0.00" incLanes="vert_e_rail_to_s_0 s_e_to_cross_e_0 s_e_to_cross_e_1 cross_w_to_cross_e_s_0 cross_w_to_cross_e_s_1" intLanes=":cross_e_s_0_0 :cross_e_s_1_0 :cross_e_s_11_0 :cross_e_s_3_0 :cross_e_s_4_0 :cross_e_s_4_1 :cross_e_s_12_0 :cross_e_s_7_0 :cross_e_s_7_1 :cross_e_s_13_0 :cross_e_s_14_0" shape="896.80,10.40 903.20,10.40 903.64,8.18 904.20,7.40 904.98,6.84 905.98,6.51 907.20,6.40 907.20,-6.40 892.80,-6.40 892.80,6.40 895.02,6.84 895.80,7.40 896.36,8.18 896.69,9.18">
        <request index="0"  response="00000110000" foes="00000110000" cont="0"/>
        <request index="1"  response="01110110000" foes="01111110000" cont="0"/>
        <request index="2"  response="01000001000" foes="01000001000" cont="1"/>
        <request index="3"  response="00000000000" foes="01000000100" cont="0"/>
        <request index="4"  response="00000000000" foes="11000000011" cont="0"/>
        <request index="5"  response="00000000000" foes="11000000011" cont="0"/>
        <request index="6"  response="00110000010" foes="00110000010" cont="1"/>
        <request index="7"  response="00000000000" foes="00001000010" cont="0"/>
        <request index="8"  response="00000000000" foes="00001000010" cont="0"/>
        <request index="9"  response="00000111000" foes="00000111110" cont="1"/>
        <request index="10" response="00000110000" foes="00000110000" cont="1"/>
    </junction>
    <junction id="cross_w_n" type="traffic_light" x="500.00" y="200.00" incLanes="cross_e_to_cross_w_n_0 cross_e_to_cross_w_n_1 vert_w_rail_to_n_0 n_w_to_cross_w_0 n_w_to_cross_w_1" intLanes=":cross_w_n_0_0 :cross_w_n_0_1 :cross_w_n_11_0 :cross_w_n_12_0 :cross_w_n_4_0 :cross_w_n_5_0 :cross_w_n_13_0 :cross_w_n_7_0 :cross_w_n_8_0 :cross_w_n_8_1 :cross_w_n_14_0" shape="507.20,206.40 507.20,193.60 504.98,193.16 504.20,192.60 503.64,191.82 503.31,190.82 503.20,189.60 496.80,189.60 496.36,191.82 495.80,192.60 495.02,193.16 494.02,193.49 492.80,193.60 492.80,206.40">
        <request index="0"  response="00000000000" foes="10000100000" cont="0"/>
        <request index="1"  response="00000000000" foes="10000100000" cont="0"/>
        <request index="2"  response="01110000000" foes="01111100000" cont="1"/>
        <request index="3"  response="01100000000" foes="01100000000" cont="1"/>
        <request index="4"  response="01100000000" foes="01100000000" cont="0"/>
        <request index="5"  response="01100000111" foes="11100000111" cont="0"/>
        <request index="6"  response="00010000100" foes="00010000100" cont="1"/>
        <request index="7"  response="00000000000" foes="00001000100" cont="0"/>
        <request index="8"  response="00000000000" foes="00000111100" cont="0"/>
        <request index="9"  response="00000000000" foes="00000111100" cont="0"/>
        <request index="10" response="00000100011" foes="00000100011" cont="1"/>
    </junction>
    <junction id="cross_w_rail" type="rail_crossing" x="500.00" y="100.00" incLanes="vert_w_n_to_rail_0 vert_w_s_to_rail_0 rail_w_to_cross_w_0" intLanes=":cross_w_rail_0_0 :cross_w_rail_1_0 :cross_w_rail_2_0 :cross_w_rail_3_0 :cross_w_rail_4_0 :cross_w_rail_5_0 :cross_w_rail_6_0" shape="496.80,101.50 503.20,101.50 503.37,100.67 503.58,100.38 503.87,100.17 504.24,100.04 504.70,100.00 504.70,96.80 503.87,96.63 503.58,96.43 503.37,96.13 503.24,95.76 503.20,95.30 496.80,95.30 496.63,96.13 496.42,96.43 496.13,96.63 495.76,96.76 495.30,96.80 495.30,100.00 496.13,100.17 496.42,100.38 496.63,100.67 496.76,101.04">
        <request index="0" response="1110000" foes="1110000" cont="0"/>
        <request index="1" response="1101100" foes="1101100" cont="0"/>
        <request index="2" response="0100000" foes="0100010" cont="0"/>
        <request index="3" response="1100000" foes="1100010" cont="0"/>
        <request index="4" response="0000000" foes="0000001" cont="0"/>
        <request index="5" response="0000000" foes="0001111" cont="0"/>
        <request index="6" response="0000000" foes="0001011" cont="0"/>
    </junction>
    <junction id="cross_w_s" type="traffic_light" x="500.00" y="0.00" incLanes="vert_w_rail_to_s_0 cross_e_to_cross_w_s_0 cross_e_to_cross_w_s_1 s_w_to_cross_w_0 s_w_to_cross_w_1" intLanes=":cross_w_s_0_0 :cross_w_s_1_0 :cross_w_s_11_0 :cross_w_s_3_0 :cross_w_s_4_0 :cross_w_s_4_1 :cross_w_s_12_0 :cross_w_s_7_0 :cross_w_s_7_1 :cross_w_s_13_0 :cross_w_s_14_0" shape="496.80,10.40 503.20,10.40 503.64,8.18 504.20,7.40 504.98,6.84 505.98,6.51 507.20,6.40 507.20,-6.40 492.80,-6.40 492.80,6.40 495.02,6.84 495.80,7.40 496.36,8.18 496.69,9.18">
        <request index="0"  response="00000110000" foes="00000110000" cont="0"/>
        <request index="1"  response="01110110000" foes="01111110000" cont="0"/>
        <request index="2"  response="01000001000" foes="01000001000" cont="1"/>